83
label=amk
O -0.2481000 -1.5435000 -0.0318000
O -1.0143000 +1.2262000 -0.0189000
O +1.6187000 +0.4791000 +2.3746000
O -0.7154000 -3.6608000 +0.9232000
O -1.9669000 +3.0045000 +1.2262000
O -0.3871000 -2.6479000 -2.5716000
O -3.5554000 +0.0746000 -0.3225000
O -4.3071000 -3.3663000 +0.1595000
O -5.0786000 +2.2906000 -1.3926000
O -3.4770000 +4.6550000 -1.7036000
O +4.4438000 -1.5561000 -1.7036000
O -1.6527000 -3.7443000 +3.4833000
O +6.8243000 -1.3551000 -0.5031000
N +3.3036000 -0.6804000 +0.1187000
N +2.5248000 +2.2729000 +0.1922000
N -3.1638000 -3.6565000 -2.4905000
N -0.5372000 +5.4195000 +1.3645000
N +6.2986000 +2.8934000 -0.1960000
C +0.9202000 -1.0504000 +0.6256000
C +0.2427000 +1.4238000 +0.6315000
C +1.9786000 -0.7591000 -0.4492000
C +0.5548000 +0.1783000 +1.4760000
C +1.3141000 +1.7359000 -0.4302000
C +1.6412000 +0.4919000 -1.2745000
C -0.1857000 -2.9586000 -0.2015000
C -2.0964000 +1.6431000 +0.8116000
C -0.9272000 -3.3750000 -1.4736000
C -2.4343000 -3.1227000 -1.3342000
C -3.4606000 +1.4101000 +0.1602000
C -2.9594000 -3.7821000 -0.0481000
C -3.7099000 +2.3830000 -0.9905000
C -2.1001000 -3.3866000 +1.1635000
C -3.4360000 +3.8217000 -0.5476000
C -2.0719000 +3.9387000 +0.1457000
C +4.4357000 -1.0908000 -0.5659000
C -2.4938000 -4.1564000 +2.4216000
C -1.8458000 +5.3284000 +0.7348000
C +5.7132000 -0.8806000 +0.2389000
C +5.9422000 +0.5901000 +0.6082000
C +6.0680000 +1.5124000 -0.6101000
H +1.3060000 -1.8138000 +1.3174000
H +0.2011000 +2.2954000 +1.2966000
H +2.0009000 -1.5892000 -1.1650000
H -0.3098000 -0.0930000 +2.0906000
H +0.9222000 +2.5018000 -1.1112000
H +0.7665000 +0.2667000 -1.8997000
H +2.4566000 +0.7186000 -1.9739000
H +0.8563000 -3.2821000 -0.3155000
H -2.0762000 +1.0334000 +1.7214000
H +3.3970000 -0.2830000 +1.0483000
H -0.7599000 -4.4451000 -1.6543000
H -2.6251000 -2.0454000 -1.3213000
H -4.2503000 +1.5445000 +0.9105000
H +2.2996000 +3.1249000 +0.7040000
H +3.1901000 +2.5414000 -0.5312000
H -2.9521000 -4.8736000 -0.1628000
H -3.1116000 +2.1137000 -1.8688000
H -2.2084000 -2.3168000 +1.3844000
H +1.3290000 +1.2160000 +2.9388000
H -4.2341000 +4.1580000 +0.1255000
H -1.2718000 +3.7447000 -0.5813000
H -3.5346000 -3.9635000 +2.6986000
H -2.3500000 -5.2328000 +2.2804000
H -1.9200000 +6.0939000 -0.0444000
H -2.6075000 +5.5441000 +1.4931000
H -4.1545000 -3.4350000 -2.3998000
H -2.8396000 -3.1950000 -3.3394000
H +5.6351000 -1.4860000 +1.1497000
H +0.5562000 -2.8739000 -2.6384000
H -3.3704000 -0.5141000 +0.4283000
H -4.3113000 -2.4018000 +0.2774000
H -5.6353000 +2.5131000 -0.6270000
H -2.7520000 +4.3864000 -2.2934000
H +6.8726000 +0.6593000 +1.1877000
H +5.1400000 +0.9504000 +1.2624000
H -0.4631000 +4.7238000 +2.1057000
H -0.4383000 +6.3289000 +1.8135000
H -1.9182000 -4.2477000 +4.2718000
H +7.5985000 -1.3396000 +0.0851000
H +5.1634000 +1.4714000 -1.2245000
H +6.9062000 +1.1938000 -1.2386000
H +6.3280000 +3.4922000 -1.0202000
H +5.5117000 +3.2180000 +0.3648000
45
label=cef
S -0.5586000 +0.8986000 -2.0988000
S +6.0436000 -1.5788000 -0.4902000
O +1.3241000 +3.3320000 +0.4702000
O +0.9713000 +0.7594000 +2.2896000
O -4.8654000 -0.3485000 -0.7008000
O -2.0761000 +0.1273000 +2.9040000
O +3.5679000 +1.1153000 +0.9287000
O -1.7889000 -1.9676000 +2.0326000
O -6.2321000 -2.1827000 -0.4408000
N -0.6238000 +0.8095000 +0.5539000
N +2.0028000 +1.3479000 -0.7677000
N -7.0943000 -0.1389000 -1.0458000
C +0.9670000 +2.0023000 +0.0430000
C -0.4526000 +1.7713000 -0.5197000
C +0.5039000 +1.1137000 +1.2326000
C -1.6782000 -0.0412000 +0.6443000
C -2.5005000 -0.2626000 -0.4089000
C -2.2661000 +0.3298000 -1.7968000
C -3.7371000 -1.1278000 -0.3645000
C +3.2287000 +0.9577000 -0.2430000
C -1.8484000 -0.7600000 +1.9156000
C +1.3280000 +4.3199000 -0.5493000
C +4.1325000 +0.2877000 -1.2584000
C +4.4254000 -1.1154000 -0.8049000
C +3.5405000 -2.1493000 -0.5909000
C -6.0766000 -0.9953000 -0.7055000
C +4.1998000 -3.3375000 -0.1627000
C +5.5633000 -3.1667000 -0.0658000
H -1.1285000 +2.6293000 -0.4236000
H +1.8295000 +1.1804000 -1.7556000
H -2.4760000 -0.4239000 -2.5632000
H -2.9494000 +1.1708000 -1.9576000
H -3.6261000 -1.9520000 -1.0801000
H -3.8992000 -1.5652000 +0.6253000
H +1.6717000 +5.2618000 -0.1136000
H +0.3200000 +4.4684000 -0.9454000
H +2.0110000 +4.0403000 -1.3564000
H +3.6652000 +0.2557000 -2.2488000
H +5.0394000 +0.8964000 -1.3484000
H -2.1959000 -0.3111000 +3.7733000
H +2.4708000 -2.0626000 -0.7340000
H +3.6994000 -4.2703000 +0.0627000
H +6.3002000 -3.8984000 +0.2338000
H -8.0567000 -0.4555000 -1.0970000
H -6.9150000 +0.8370000 -1.2568000
